@<TRIPOS>MOLECULE
BFV
   69    72     1     0     0
SMALL
bcc


@<TRIPOS>ATOM
      1 F1           -8.7941    -16.6418     13.8732 f          10 BFV      -0.163235
      2 F2           -5.0241    -13.6798     13.1032 f          10 BFV      -0.163235
      3 H1           -7.0401    -15.0238     13.3782 ha         10 BFV       0.126476
      4 F3          -10.1781    -15.2888     14.8652 f          10 BFV      -0.163235
      5 C1           -9.6861    -15.6478     13.6512 c3         10 BFV       0.417211
      6 C2           -7.7001    -14.3018     12.9132 ca         10 BFV      -0.174245
      7 C3           -5.7091    -12.9718     12.1752 c3         10 BFV       0.417211
      8 F4          -10.7231    -16.1878     12.9662 f          10 BFV      -0.163235
      9 C4           -9.0831    -14.4808     12.9292 ca         10 BFV       0.003580
     10 F5           -5.2301    -13.3558     10.9642 f          10 BFV      -0.163235
     11 C5           -7.1921    -13.1708     12.2792 ca         10 BFV       0.003580
     12 F6           -5.3581    -11.6718     12.3262 f          10 BFV      -0.163235
     13 F7          -10.4901    -10.7978     16.3962 f          10 BFV      -0.163235
     14 F8          -12.4821    -11.6288     16.1902 f          10 BFV      -0.163235
     15 C6           -9.9281    -13.5498     12.3222 ca         10 BFV      -0.171802
     16 C7           -8.0461    -12.2368     11.6832 ca         10 BFV      -0.171802
     17 C8          -11.7541    -10.4978     16.0082 c3         10 BFV       0.417211
     18 F9          -12.2301     -9.5828     16.8832 f          10 BFV      -0.163235
     19 H2          -10.9991    -13.7298     12.3402 ha         10 BFV       0.111896
     20 H3          -10.6281    -11.6788     13.9122 ha         10 BFV       0.111896
     21 C9           -9.4401    -12.3928     11.6882 ca         10 BFV       0.098500
     22 H4           -7.6071    -11.3678     11.2062 ha         10 BFV       0.111896
     23 C10         -11.1621    -10.7858     13.6042 ca         10 BFV      -0.171802
     24 C11         -11.8051    -10.0248     14.5862 ca         10 BFV       0.003580
     25 F10         -11.5141    -16.1588      8.5292 f          10 BFV      -0.163235
     26 B           -10.4901    -11.3058     11.0512 4b         10 BFV      -0.172361
     27 F11          -6.5741     -7.7788     11.4102 f          10 BFV      -0.163235
     28 H5          -10.2311    -13.4758      9.3082 ha         10 BFV       0.111896
     29 C12         -11.1821    -10.4248     12.2502 ca         10 BFV       0.098500
     30 C13         -12.5041     -8.8688     14.2512 ca         10 BFV      -0.174245
     31 C14         -11.2771    -13.1908      9.3762 ca         10 BFV      -0.171802
     32 H6           -8.8541     -9.1218     11.6582 ha         10 BFV       0.111896
     33 C15         -11.7501    -15.0508      7.7792 c3         10 BFV       0.417211
     34 C16         -11.6431    -12.1278     10.2212 ca         10 BFV       0.098500
     35 F12         -10.5911    -14.7758      7.1342 f          10 BFV      -0.163235
     36 H7          -13.0031     -8.2788     15.0102 ha         10 BFV       0.126476
     37 C17          -8.9031     -9.2488     10.5802 ca         10 BFV      -0.171802
     38 C18          -9.6971    -10.2788     10.0472 ca         10 BFV       0.098500
     39 C19         -12.2121    -13.8968      8.6182 ca         10 BFV       0.003580
     40 C20          -7.3681     -7.2918     10.4242 c3         10 BFV       0.417211
     41 C21         -11.8791     -9.2428     11.9382 ca         10 BFV      -0.171802
     42 C22          -8.1711     -8.3758      9.7712 ca         10 BFV       0.003580
     43 C23         -13.0111    -11.8248     10.2692 ca         10 BFV      -0.171802
     44 C24         -12.5331     -8.4838     12.9102 ca         10 BFV       0.003580
     45 F13         -12.6551    -15.4058      6.8392 f          10 BFV      -0.163235
     46 C25         -13.5681    -13.5748      8.6812 ca         10 BFV      -0.174245
     47 C26          -9.7241    -10.3718      8.6482 ca         10 BFV      -0.171802
     48 F14          -6.5661     -6.6368      9.5552 f          10 BFV      -0.163235
     49 F15          -8.1621     -6.3568     11.0072 f          10 BFV      -0.163235
     50 H8          -13.3611    -11.0248     10.9122 ha         10 BFV       0.111896
     51 C27         -13.9561    -12.5318      9.5172 ca         10 BFV       0.003580
     52 H9          -10.3291    -11.1378      8.1752 ha         10 BFV       0.111896
     53 C28          -8.2131     -8.4898      8.3832 ca         10 BFV      -0.174245
     54 H10         -14.2981    -14.1238      8.0992 ha         10 BFV       0.126476
     55 C29          -9.0011     -9.4978      7.8302 ca         10 BFV       0.003580
     56 H11         -11.9091     -8.9038     10.9072 ha         10 BFV       0.111896
     57 F16         -15.7711    -11.7478     10.8232 f          10 BFV      -0.163235
     58 F17          -8.1331    -10.6268      5.9362 f          10 BFV      -0.163235
     59 C30         -13.3191     -7.2798     12.4872 c3         10 BFV       0.417211
     60 F18         -13.5931     -6.4478     13.5182 f          10 BFV      -0.163235
     61 C31         -15.3951    -12.1138      9.5742 c3         10 BFV       0.417211
     62 F19         -16.2371    -13.0978      9.1772 f          10 BFV      -0.163235
     63 H12          -7.6531     -7.8118      7.7512 ha         10 BFV       0.126476
     64 C32          -9.0291     -9.6898      6.3432 c3         10 BFV       0.417211
     65 F20         -12.6691     -6.5508     11.5492 f          10 BFV      -0.163235
     66 F21         -14.5121     -7.6268     11.9392 f          10 BFV      -0.163235
     67 F22         -10.2401    -10.1058      5.9042 f          10 BFV      -0.163235
     68 F23         -15.6451    -11.0458      8.7732 f          10 BFV      -0.163235
     69 F24          -8.7301     -8.5548      5.6692 f          10 BFV      -0.163235
@<TRIPOS>BOND
     1     1     5 1   
     2     2     7 1   
     3     3     6 1   
     4     4     5 1   
     5     5     8 1   
     6     5     9 1   
     7     6     9 ar  
     8     6    11 ar  
     9     7    10 1   
    10     7    11 1   
    11     7    12 1   
    12     9    15 ar  
    13    11    16 ar  
    14    13    17 1   
    15    14    17 1   
    16    15    19 1   
    17    15    21 ar  
    18    16    21 ar  
    19    16    22 1   
    20    17    18 1   
    21    17    24 1   
    22    20    23 1   
    23    21    26 1   
    24    23    24 ar  
    25    23    29 ar  
    26    24    30 ar  
    27    25    33 1   
    28    26    29 1   
    29    26    34 1   
    30    26    38 1   
    31    27    40 1   
    32    28    31 1   
    33    29    41 ar  
    34    30    36 1   
    35    30    44 ar  
    36    31    34 ar  
    37    31    39 ar  
    38    32    37 1   
    39    33    35 1   
    40    33    39 1   
    41    33    45 1   
    42    34    43 ar  
    43    37    38 ar  
    44    37    42 ar  
    45    38    47 ar  
    46    39    46 ar  
    47    40    42 1   
    48    40    48 1   
    49    40    49 1   
    50    41    44 ar  
    51    41    56 1   
    52    42    53 ar  
    53    43    50 1   
    54    43    51 ar  
    55    44    59 1   
    56    46    51 ar  
    57    46    54 1   
    58    47    52 1   
    59    47    55 ar  
    60    51    61 1   
    61    53    55 ar  
    62    53    63 1   
    63    55    64 1   
    64    57    61 1   
    65    58    64 1   
    66    59    60 1   
    67    59    65 1   
    68    59    66 1   
    69    61    62 1   
    70    61    68 1   
    71    64    67 1   
    72    64    69 1   
@<TRIPOS>SUBSTRUCTURE
     1 BFV         1 TEMP              0 ****  ****    0 ROOT
