@<TRIPOS>MOLECULE
BFW
   69    72     1     0     0
SMALL
bcc


@<TRIPOS>ATOM
      1 F1           12.7030    -10.7983     -6.7966 f           8 BFW      -0.163235
      2 F2           10.9630     -9.5823     -6.3096 f           8 BFW      -0.163235
      3 F3           18.1690    -13.6793    -10.0896 f           8 BFW      -0.163235
      4 C1           11.4390    -10.4973     -7.1836 c3          8 BFW       0.417211
      5 F4           10.7100    -11.6293     -7.0026 f           8 BFW      -0.163235
      6 F5           13.0140    -15.2893     -8.3276 f           8 BFW      -0.163235
      7 F6           17.8340    -11.6723    -10.8656 f           8 BFW      -0.163235
      8 H1           16.1520    -15.0243     -9.8146 ha          8 BFW       0.126476
      9 C2           17.4840    -12.9723    -11.0166 c3          8 BFW       0.417211
     10 F7           14.3980    -16.6413     -9.3196 f           8 BFW      -0.163235
     11 C3           15.4930    -14.3023    -10.2796 ca          8 BFW      -0.174245
     12 C4           11.3870    -10.0243     -8.6056 ca          8 BFW       0.003580
     13 C5           13.5070    -15.6483     -9.5416 c3          8 BFW       0.417211
     14 C6           16.0010    -13.1703    -10.9136 ca          8 BFW       0.003580
     15 H2           10.1900     -8.2783     -8.1826 ha          8 BFW       0.126476
     16 H3           12.5650    -11.6793     -9.2806 ha          8 BFW       0.111896
     17 C7           14.1100    -14.4803    -10.2636 ca          8 BFW       0.003580
     18 C8           10.6880     -8.8683     -8.9416 ca          8 BFW      -0.174245
     19 F8           16.6190     -7.7783    -11.7826 f           8 BFW      -0.163235
     20 C9           12.0310    -10.7853     -9.5886 ca          8 BFW      -0.171802
     21 F9           17.9620    -13.3563    -12.2286 f           8 BFW      -0.163235
     22 C10          15.1460    -12.2373    -11.5096 ca          8 BFW      -0.171802
     23 F10          12.4700    -16.1883    -10.2266 f           8 BFW      -0.163235
     24 C11          13.2650    -13.5493    -10.8696 ca          8 BFW      -0.171802
     25 F11          15.0310     -6.3563    -12.1856 f           8 BFW      -0.163235
     26 H4           15.5850    -11.3673    -11.9866 ha          8 BFW       0.111896
     27 H5           14.3380     -9.1223    -11.5346 ha          8 BFW       0.111896
     28 F12           9.5990     -6.4473     -9.6736 f           8 BFW      -0.163235
     29 C12          13.7530    -12.3933    -11.5036 ca          8 BFW       0.098500
     30 C13          15.8240     -7.2913    -12.7676 c3          8 BFW       0.417211
     31 C14          10.6600     -8.4843    -10.2816 ca          8 BFW       0.003580
     32 C15          12.0100    -10.4253    -10.9426 ca          8 BFW       0.098500
     33 H6           12.1940    -13.7303    -10.8516 ha          8 BFW       0.111896
     34 F13          16.6270     -6.6363    -13.6376 f           8 BFW      -0.163235
     35 C16          14.2890     -9.2483    -12.6126 ca          8 BFW      -0.171802
     36 C17          11.3130     -9.2433    -11.2536 ca          8 BFW      -0.171802
     37 C18           9.8730     -7.2793    -10.7046 c3          8 BFW       0.417211
     38 B            12.7030    -11.3053    -12.1416 4b          8 BFW      -0.172361
     39 C19          15.0210     -8.3763    -13.4216 ca          8 BFW       0.003580
     40 F14          10.5240     -6.5503    -11.6436 f           8 BFW      -0.163235
     41 C20          13.4960    -10.2783    -13.1456 ca          8 BFW       0.098500
     42 F15           8.6800     -7.6263    -11.2536 f           8 BFW      -0.163235
     43 H7           11.2840     -8.9033    -12.2856 ha          8 BFW       0.111896
     44 C21          11.5490    -12.1273    -12.9706 ca          8 BFW       0.098500
     45 C22          14.9800     -8.4903    -14.8096 ca          8 BFW      -0.174245
     46 H8            9.8310    -11.0243    -12.2806 ha          8 BFW       0.111896
     47 C23          13.4680    -10.3723    -14.5446 ca          8 BFW      -0.171802
     48 C24          10.1810    -11.8253    -12.9236 ca          8 BFW      -0.171802
     49 H9           12.9620    -13.4753    -13.8846 ha          8 BFW       0.111896
     50 H10          15.5400     -7.8113    -15.4416 ha          8 BFW       0.126476
     51 C25          11.9160    -13.1903    -13.8166 ca          8 BFW      -0.171802
     52 C26          14.1920     -9.4983    -15.3626 ca          8 BFW       0.003580
     53 F16           7.4220    -11.7483    -12.3696 f           8 BFW      -0.163235
     54 H11          12.8630    -11.1383    -15.0176 ha          8 BFW       0.111896
     55 C27           9.2370    -12.5313    -13.6756 ca          8 BFW       0.003580
     56 F17          11.6790    -16.1583    -14.6636 f           8 BFW      -0.163235
     57 C28          10.9800    -13.8973    -14.5746 ca          8 BFW       0.003580
     58 C29           7.7970    -12.1143    -13.6186 c3          8 BFW       0.417211
     59 C30          14.1640     -9.6903    -16.8496 c3          8 BFW       0.417211
     60 C31           9.6250    -13.5753    -14.5116 ca          8 BFW      -0.174245
     61 F18          15.0590    -10.6263    -17.2566 f           8 BFW      -0.163235
     62 C32          11.4430    -15.0513    -15.4136 c3          8 BFW       0.417211
     63 F19          12.6020    -14.7763    -16.0586 f           8 BFW      -0.163235
     64 F20          14.4630     -8.5543    -17.5236 f           8 BFW      -0.163235
     65 F21           6.9560    -13.0973    -14.0156 f           8 BFW      -0.163235
     66 F22           7.5470    -11.0453    -14.4196 f           8 BFW      -0.163235
     67 F23          12.9520    -10.1063    -17.2886 f           8 BFW      -0.163235
     68 H12           8.8950    -14.1243    -15.0936 ha          8 BFW       0.126476
     69 F24          10.5370    -15.4063    -16.3536 f           8 BFW      -0.163235
@<TRIPOS>BOND
     1     1     4 1   
     2     2     4 1   
     3     3     9 1   
     4     4     5 1   
     5     4    12 1   
     6     6    13 1   
     7     7     9 1   
     8     8    11 1   
     9     9    14 1   
    10     9    21 1   
    11    10    13 1   
    12    11    14 ar  
    13    11    17 ar  
    14    12    18 ar  
    15    12    20 ar  
    16    13    17 1   
    17    13    23 1   
    18    14    22 ar  
    19    15    18 1   
    20    16    20 1   
    21    17    24 ar  
    22    18    31 ar  
    23    19    30 1   
    24    20    32 ar  
    25    22    26 1   
    26    22    29 ar  
    27    24    29 ar  
    28    24    33 1   
    29    25    30 1   
    30    27    35 1   
    31    28    37 1   
    32    29    38 1   
    33    30    34 1   
    34    30    39 1   
    35    31    36 ar  
    36    31    37 1   
    37    32    36 ar  
    38    32    38 1   
    39    35    39 ar  
    40    35    41 ar  
    41    36    43 1   
    42    37    40 1   
    43    37    42 1   
    44    38    41 1   
    45    38    44 1   
    46    39    45 ar  
    47    41    47 ar  
    48    44    48 ar  
    49    44    51 ar  
    50    45    50 1   
    51    45    52 ar  
    52    46    48 1   
    53    47    52 ar  
    54    47    54 1   
    55    48    55 ar  
    56    49    51 1   
    57    51    57 ar  
    58    52    59 1   
    59    53    58 1   
    60    55    58 1   
    61    55    60 ar  
    62    56    62 1   
    63    57    60 ar  
    64    57    62 1   
    65    58    65 1   
    66    58    66 1   
    67    59    61 1   
    68    59    64 1   
    69    59    67 1   
    70    60    68 1   
    71    62    63 1   
    72    62    69 1   
@<TRIPOS>SUBSTRUCTURE
     1 BFW         1 TEMP              0 ****  ****    0 ROOT
