@<TRIPOS>MOLECULE
BFY
   69    72     1     0     0
SMALL
bcc


@<TRIPOS>ATOM
      1 F1           12.7032     12.3943     16.3962 f           7 BFY      -0.163235
      2 F2           10.9632     13.6103     16.8832 f           7 BFY      -0.163235
      3 F3           18.1692      9.5133     13.1032 f           7 BFY      -0.163235
      4 C1           11.4382     12.6953     16.0082 c3          7 BFY       0.417211
      5 F4           10.7102     11.5633     16.1902 f           7 BFY      -0.163235
      6 F5           13.0142      7.9033     14.8652 f           7 BFY      -0.163235
      7 F6           17.8342     11.5203     12.3262 f           7 BFY      -0.163235
      8 H1           16.1522      8.1683     13.3782 ha          7 BFY       0.126476
      9 C2           17.4832     10.2203     12.1752 c3          7 BFY       0.417211
     10 F7           14.3982      6.5513     13.8732 f           7 BFY      -0.163235
     11 C3           15.4932      8.8903     12.9132 ca          7 BFY      -0.174245
     12 C4           11.3872     13.1683     14.5862 ca          7 BFY       0.003580
     13 C5           13.5072      7.5443     13.6512 c3          7 BFY       0.417211
     14 C6           16.0012     10.0223     12.2792 ca          7 BFY       0.003580
     15 H2           10.1892     14.9143     15.0102 ha          7 BFY       0.126476
     16 H3           12.5642     11.5133     13.9122 ha          7 BFY       0.111896
     17 C7           14.1102      8.7123     12.9292 ca          7 BFY       0.003580
     18 C8           10.6882     14.3243     14.2512 ca          7 BFY      -0.174245
     19 F8           16.6182     15.4143     11.4102 f           7 BFY      -0.163235
     20 C9           12.0302     12.4073     13.6042 ca          7 BFY      -0.171802
     21 F9           17.9622      9.8363     10.9642 f           7 BFY      -0.163235
     22 C10          15.1462     10.9553     11.6832 ca          7 BFY      -0.171802
     23 F10          12.4702      7.0043     12.9662 f           7 BFY      -0.163235
     24 C11          13.2652      9.6433     12.3222 ca          7 BFY      -0.171802
     25 F11          15.0312     16.8363     11.0072 f           7 BFY      -0.163235
     26 H4           15.5852     11.8253     11.2062 ha          7 BFY       0.111896
     27 H5           14.3382     14.0703     11.6582 ha          7 BFY       0.111896
     28 F12           9.5992     16.7453     13.5182 f           7 BFY      -0.163235
     29 C12          13.7532     10.7993     11.6882 ca          7 BFY       0.098500
     30 C13          15.8242     15.9013     10.4242 c3          7 BFY       0.417211
     31 C14          10.6602     14.7083     12.9102 ca          7 BFY       0.003580
     32 C15          12.0102     12.7673     12.2502 ca          7 BFY       0.098500
     33 H6           12.1942      9.4623     12.3402 ha          7 BFY       0.111896
     34 F13          16.6262     16.5563      9.5552 f           7 BFY      -0.163235
     35 C16          14.2892     13.9443     10.5802 ca          7 BFY      -0.171802
     36 C17          11.3132     13.9493     11.9382 ca          7 BFY      -0.171802
     37 C18           9.8732     15.9133     12.4872 c3          7 BFY       0.417211
     38 B            12.7032     11.8873     11.0512 4b          7 BFY      -0.172361
     39 C19          15.0212     14.8163      9.7712 ca          7 BFY       0.003580
     40 F14          10.5232     16.6423     11.5492 f           7 BFY      -0.163235
     41 C20          13.4952     12.9143     10.0472 ca          7 BFY       0.098500
     42 F15           8.6802     15.5663     11.9392 f           7 BFY      -0.163235
     43 H7           11.2842     14.2893     10.9072 ha          7 BFY       0.111896
     44 C21          11.5492     11.0653     10.2212 ca          7 BFY       0.098500
     45 C22          14.9792     14.7023      8.3832 ca          7 BFY      -0.174245
     46 H8            9.8312     12.1683     10.9122 ha          7 BFY       0.111896
     47 C23          13.4682     12.8203      8.6482 ca          7 BFY      -0.171802
     48 C24          10.1812     11.3673     10.2692 ca          7 BFY      -0.171802
     49 H9           12.9622      9.7173      9.3082 ha          7 BFY       0.111896
     50 H10          15.5392     15.3813      7.7512 ha          7 BFY       0.126476
     51 C25          11.9152     10.0023      9.3762 ca          7 BFY      -0.171802
     52 C26          14.1912     13.6943      7.8302 ca          7 BFY       0.003580
     53 F16           7.4222     11.4443     10.8232 f           7 BFY      -0.163235
     54 H11          12.8632     12.0543      8.1752 ha          7 BFY       0.111896
     55 C27           9.2362     10.6613      9.5172 ca          7 BFY       0.003580
     56 F17          11.6792      7.0343      8.5292 f           7 BFY      -0.163235
     57 C28          10.9802      9.2953      8.6182 ca          7 BFY       0.003580
     58 C29           7.7972     11.0783      9.5742 c3          7 BFY       0.417211
     59 C30          14.1632     13.5023      6.3432 c3          7 BFY       0.417211
     60 C31           9.6252      9.6173      8.6812 ca          7 BFY      -0.174245
     61 F18          15.0592     12.5663      5.9362 f           7 BFY      -0.163235
     62 C32          11.4422      8.1413      7.7792 c3          7 BFY       0.417211
     63 F19          12.6012      8.4163      7.1342 f           7 BFY      -0.163235
     64 F20          14.4632     14.6383      5.6692 f           7 BFY      -0.163235
     65 F21           6.9562     10.0953      9.1772 f           7 BFY      -0.163235
     66 F22           7.5472     12.1473      8.7732 f           7 BFY      -0.163235
     67 F23          12.9522     13.0863      5.9042 f           7 BFY      -0.163235
     68 H12           8.8952      9.0683      8.0992 ha          7 BFY       0.126476
     69 F24          10.5372      7.7863      6.8392 f           7 BFY      -0.163235
@<TRIPOS>BOND
     1     1     4 1   
     2     2     4 1   
     3     3     9 1   
     4     4     5 1   
     5     4    12 1   
     6     6    13 1   
     7     7     9 1   
     8     8    11 1   
     9     9    14 1   
    10     9    21 1   
    11    10    13 1   
    12    11    14 ar  
    13    11    17 ar  
    14    12    18 ar  
    15    12    20 ar  
    16    13    17 1   
    17    13    23 1   
    18    14    22 ar  
    19    15    18 1   
    20    16    20 1   
    21    17    24 ar  
    22    18    31 ar  
    23    19    30 1   
    24    20    32 ar  
    25    22    26 1   
    26    22    29 ar  
    27    24    29 ar  
    28    24    33 1   
    29    25    30 1   
    30    27    35 1   
    31    28    37 1   
    32    29    38 1   
    33    30    34 1   
    34    30    39 1   
    35    31    36 ar  
    36    31    37 1   
    37    32    36 ar  
    38    32    38 1   
    39    35    39 ar  
    40    35    41 ar  
    41    36    43 1   
    42    37    40 1   
    43    37    42 1   
    44    38    41 1   
    45    38    44 1   
    46    39    45 ar  
    47    41    47 ar  
    48    44    48 ar  
    49    44    51 ar  
    50    45    50 1   
    51    45    52 ar  
    52    46    48 1   
    53    47    52 ar  
    54    47    54 1   
    55    48    55 ar  
    56    49    51 1   
    57    51    57 ar  
    58    52    59 1   
    59    53    58 1   
    60    55    58 1   
    61    55    60 ar  
    62    56    62 1   
    63    57    60 ar  
    64    57    62 1   
    65    58    65 1   
    66    58    66 1   
    67    59    61 1   
    68    59    64 1   
    69    59    67 1   
    70    60    68 1   
    71    62    63 1   
    72    62    69 1   
@<TRIPOS>SUBSTRUCTURE
     1 BFY         1 TEMP              0 ****  ****    0 ROOT
