@<TRIPOS>MOLECULE
BFX
   69    72     1     0     0
SMALL
bcc


@<TRIPOS>ATOM
      1 F1          -10.4901     12.3946     -6.7963 f           9 BFX      -0.163235
      2 F2          -12.2301     13.6096     -6.3093 f           9 BFX      -0.163235
      3 F3           -5.0241      9.5136    -10.0893 f           9 BFX      -0.163235
      4 C1          -11.7541     12.6946     -7.1843 c3          9 BFX       0.417211
      5 F4          -12.4821     11.5636     -7.0033 f           9 BFX      -0.163235
      6 F5          -10.1781      7.9036     -8.3273 f           9 BFX      -0.163235
      7 F6           -5.3581     11.5206    -10.8663 f           9 BFX      -0.163235
      8 H1           -7.0401      8.1686     -9.8153 ha          9 BFX       0.126476
      9 C2           -5.7091     10.2206    -11.0173 c3          9 BFX       0.417211
     10 F7           -8.7941      6.5516     -9.3193 f           9 BFX      -0.163235
     11 C3           -7.7001      8.8906    -10.2793 ca          9 BFX      -0.174245
     12 C4          -11.8051     13.1686     -8.6063 ca          9 BFX       0.003580
     13 C5           -9.6861      7.5446     -9.5413 c3          9 BFX       0.417211
     14 C6           -7.1921     10.0216    -10.9133 ca          9 BFX       0.003580
     15 H2          -13.0031     14.9136     -8.1823 ha          9 BFX       0.126476
     16 H3          -10.6281     11.5136     -9.2803 ha          9 BFX       0.111896
     17 C7           -9.0831      8.7116    -10.2633 ca          9 BFX       0.003580
     18 C8          -12.5041     14.3246     -8.9413 ca          9 BFX      -0.174245
     19 F8           -6.5741     15.4146    -11.7823 f           9 BFX      -0.163235
     20 C9          -11.1621     12.4066     -9.5883 ca          9 BFX      -0.171802
     21 F9           -5.2301      9.8366    -12.2283 f           9 BFX      -0.163235
     22 C10          -8.0461     10.9556    -11.5103 ca          9 BFX      -0.171802
     23 F10         -10.7221      7.0046    -10.2263 f           9 BFX      -0.163235
     24 C11          -9.9281      9.6426    -10.8703 ca          9 BFX      -0.171802
     25 F11          -8.1611     16.8366    -12.1853 f           9 BFX      -0.163235
     26 H4           -7.6071     11.8256    -11.9873 ha          9 BFX       0.111896
     27 H5           -8.8541     14.0706    -11.5343 ha          9 BFX       0.111896
     28 F12         -13.5931     16.7446     -9.6743 f           9 BFX      -0.163235
     29 C12          -9.4401     10.7996    -11.5043 ca          9 BFX       0.098500
     30 C13          -7.3681     15.9016    -12.7683 c3          9 BFX       0.417211
     31 C14         -12.5331     14.7086    -10.2823 ca          9 BFX       0.003580
     32 C15         -11.1821     12.7676    -10.9423 ca          9 BFX       0.098500
     33 H6          -10.9991      9.4626    -10.8523 ha          9 BFX       0.111896
     34 F13          -6.5661     16.5556    -13.6373 f           9 BFX      -0.163235
     35 C16          -8.9031     13.9446    -12.6123 ca          9 BFX      -0.171802
     36 C17         -11.8791     13.9496    -11.2543 ca          9 BFX      -0.171802
     37 C18         -13.3191     15.9136    -10.7053 c3          9 BFX       0.417211
     38 B           -10.4901     11.8866    -12.1413 4b          9 BFX      -0.172361
     39 C19          -8.1711     14.8166    -13.4213 ca          9 BFX       0.003580
     40 F14         -12.6691     16.6416    -11.6433 f           9 BFX      -0.163235
     41 C20          -9.6971     12.9136    -13.1453 ca          9 BFX       0.098500
     42 F15         -14.5121     15.5656    -11.2533 f           9 BFX      -0.163235
     43 H7          -11.9091     14.2886    -12.2853 ha          9 BFX       0.111896
     44 C21         -11.6431     11.0646    -12.9713 ca          9 BFX       0.098500
     45 C22          -8.2131     14.7026    -14.8103 ca          9 BFX      -0.174245
     46 H8          -13.3611     12.1676    -12.2803 ha          9 BFX       0.111896
     47 C23          -9.7241     12.8206    -14.5443 ca          9 BFX      -0.171802
     48 C24         -13.0111     11.3676    -12.9233 ca          9 BFX      -0.171802
     49 H9          -10.2311      9.7176    -13.8843 ha          9 BFX       0.111896
     50 H10          -7.6531     15.3816    -15.4413 ha          9 BFX       0.126476
     51 C25         -11.2771     10.0016    -13.8163 ca          9 BFX      -0.171802
     52 C26          -9.0011     13.6946    -15.3623 ca          9 BFX       0.003580
     53 F16         -15.7711     11.4446    -12.3703 f           9 BFX      -0.163235
     54 H11         -10.3291     12.0546    -15.0183 ha          9 BFX       0.111896
     55 C27         -13.9561     10.6616    -13.6753 ca          9 BFX       0.003580
     56 F17         -11.5141      7.0336    -14.6633 f           9 BFX      -0.163235
     57 C28         -12.2121      9.2956    -14.5753 ca          9 BFX       0.003580
     58 C29         -15.3951     11.0786    -13.6183 c3          9 BFX       0.417211
     59 C30          -9.0291     13.5026    -16.8493 c3          9 BFX       0.417211
     60 C31         -13.5681      9.6176    -14.5123 ca          9 BFX      -0.174245
     61 F18          -8.1331     12.5656    -17.2563 f           9 BFX      -0.163235
     62 C32         -11.7501      8.1416    -15.4133 c3          9 BFX       0.417211
     63 F19         -10.5911      8.4166    -16.0593 f           9 BFX      -0.163235
     64 F20          -8.7291     14.6386    -17.5233 f           9 BFX      -0.163235
     65 F21         -16.2371     10.0956    -14.0153 f           9 BFX      -0.163235
     66 F22         -15.6451     12.1466    -14.4193 f           9 BFX      -0.163235
     67 F23         -10.2401     13.0866    -17.2883 f           9 BFX      -0.163235
     68 H12         -14.2971      9.0686    -15.0943 ha          9 BFX       0.126476
     69 F24         -12.6551      7.7866    -16.3543 f           9 BFX      -0.163235
@<TRIPOS>BOND
     1     1     4 1   
     2     2     4 1   
     3     3     9 1   
     4     4     5 1   
     5     4    12 1   
     6     6    13 1   
     7     7     9 1   
     8     8    11 1   
     9     9    14 1   
    10     9    21 1   
    11    10    13 1   
    12    11    14 ar  
    13    11    17 ar  
    14    12    18 ar  
    15    12    20 ar  
    16    13    17 1   
    17    13    23 1   
    18    14    22 ar  
    19    15    18 1   
    20    16    20 1   
    21    17    24 ar  
    22    18    31 ar  
    23    19    30 1   
    24    20    32 ar  
    25    22    26 1   
    26    22    29 ar  
    27    24    29 ar  
    28    24    33 1   
    29    25    30 1   
    30    27    35 1   
    31    28    37 1   
    32    29    38 1   
    33    30    34 1   
    34    30    39 1   
    35    31    36 ar  
    36    31    37 1   
    37    32    36 ar  
    38    32    38 1   
    39    35    39 ar  
    40    35    41 ar  
    41    36    43 1   
    42    37    40 1   
    43    37    42 1   
    44    38    41 1   
    45    38    44 1   
    46    39    45 ar  
    47    41    47 ar  
    48    44    48 ar  
    49    44    51 ar  
    50    45    50 1   
    51    45    52 ar  
    52    46    48 1   
    53    47    52 ar  
    54    47    54 1   
    55    48    55 ar  
    56    49    51 1   
    57    51    57 ar  
    58    52    59 1   
    59    53    58 1   
    60    55    58 1   
    61    55    60 ar  
    62    56    62 1   
    63    57    60 ar  
    64    57    62 1   
    65    58    65 1   
    66    58    66 1   
    67    59    61 1   
    68    59    64 1   
    69    59    67 1   
    70    60    68 1   
    71    62    63 1   
    72    62    69 1   
@<TRIPOS>SUBSTRUCTURE
     1 BFX         1 TEMP              0 ****  ****    0 ROOT
