@<TRIPOS>MOLECULE
UNL
   15    15     1     0     0
SMALL
bcc


@<TRIPOS>ATOM
      1 C1           -0.7282     -1.5716     -0.4485 cc         11 PZQ      -0.187200
      2 C2           -0.6342     -2.9086     -0.4985 cd         11 PZQ      -0.181200
      3 C3            0.4928     -0.7336     -0.4365 c          11 PZQ       0.542500
      4 C4            1.8368     -1.3826     -0.4815 cc         11 PZQ      -0.119400
      5 C5            1.9198     -2.7266     -0.5315 cd         11 PZQ      -0.202200
      6 C6            0.6938     -3.5576     -0.5425 c          11 PZQ       0.541500
      7 C7            3.1018     -0.5646     -0.4715 c3         11 PZQ      -0.066900
      8 H1            2.8888      0.5234     -0.4285 hc         11 PZQ       0.061033
      9 H2            3.6868     -0.7676     -1.3925 hc         11 PZQ       0.061033
     10 H3            3.7148     -0.8336      0.4145 hc         11 PZQ       0.061033
     11 O1            0.3868      0.4814     -0.3905 o          11 PZQ      -0.493100
     12 O2            0.7798     -4.7746     -0.5885 o          11 PZQ      -0.495100
     13 H4           -1.7072     -1.1026     -0.4155 ha         11 PZQ       0.160000
     14 H5           -1.5352     -3.5136     -0.5065 ha         11 PZQ       0.160000
     15 H6            2.8908     -3.2146     -0.5645 ha         11 PZQ       0.159000
@<TRIPOS>BOND
     1     1     2 2   
     2     1     3 1   
     3     1    13 1   
     4     2     6 1   
     5     2    14 1   
     6     3     4 1   
     7     3    11 2   
     8     4     5 2   
     9     4     7 1   
    10     5     6 1   
    11     5    15 1   
    12     6    12 2   
    13     7     8 1   
    14     7     9 1   
    15     7    10 1   
@<TRIPOS>SUBSTRUCTURE
     1 PZQ         1 TEMP              0 ****  ****    0 ROOT
